Version 4
SHEET 1 1160 680
WIRE 336 -96 -32 -96
WIRE 768 -96 416 -96
WIRE -32 48 -32 -96
WIRE 0 48 -32 48
WIRE 128 48 80 48
WIRE 320 64 288 64
WIRE 432 64 384 64
WIRE 640 80 608 80
WIRE 768 80 768 -96
WIRE 768 80 704 80
WIRE -32 128 -32 48
WIRE 0 128 -32 128
WIRE -592 144 -592 112
WIRE -592 144 -656 144
WIRE 128 144 128 48
WIRE 128 144 64 144
WIRE 160 144 128 144
WIRE 288 144 288 64
WIRE 288 144 240 144
WIRE 320 144 288 144
WIRE -144 160 -256 160
WIRE -32 160 -64 160
WIRE 0 160 -32 160
WIRE 432 160 432 64
WIRE 432 160 384 160
WIRE 448 160 432 160
WIRE 496 160 448 160
WIRE 608 160 608 80
WIRE 608 160 576 160
WIRE 640 160 608 160
WIRE -656 176 -656 144
WIRE -592 176 -592 144
WIRE 320 176 304 176
WIRE 768 176 768 80
WIRE 768 176 704 176
WIRE -256 192 -256 160
WIRE 640 192 624 192
WIRE 304 208 304 176
WIRE 624 224 624 192
WIRE -256 320 -256 272
WIRE -32 320 -32 160
WIRE 128 320 -32 320
WIRE 448 320 448 160
WIRE 448 320 208 320
FLAG 304 208 0
FLAG 624 224 0
FLAG -256 320 0
FLAG 128 48 VO
FLAG -256 160 VI
FLAG -656 176 0
FLAG -592 32 +V
FLAG 32 112 +V
FLAG 352 128 +V
FLAG 672 144 +V
FLAG -592 256 -V
FLAG 32 176 -V
FLAG 352 192 -V
FLAG 672 208 -V
SYMBOL res 256 128 R90
WINDOW 0 0 56 VBottom 2
WINDOW 3 32 56 VTop 2
SYMATTR InstName R1
SYMATTR Value {mc(12.22k,tola)}
SYMBOL res 592 144 R90
WINDOW 0 0 56 VBottom 2
WINDOW 3 32 56 VTop 2
SYMATTR InstName R2
SYMATTR Value {mc(12.22k,tola)}
SYMBOL res -48 144 R90
WINDOW 0 0 56 VBottom 2
WINDOW 3 32 56 VTop 2
SYMATTR InstName R3
SYMATTR Value {mc(1k,tola)}
SYMBOL res 224 304 R90
WINDOW 0 0 56 VBottom 2
WINDOW 3 32 56 VTop 2
SYMATTR InstName R4
SYMATTR Value {mc(12.3k,tola)}
SYMBOL res 432 -112 R90
WINDOW 0 0 56 VBottom 2
WINDOW 3 32 56 VTop 2
SYMATTR InstName R5
SYMATTR Value {mc(15k,tola)}
SYMBOL res 96 32 R90
WINDOW 0 0 56 VBottom 2
WINDOW 3 32 56 VTop 2
SYMATTR InstName R6
SYMATTR Value {mc(15k,tola)}
SYMBOL cap 384 48 R90
WINDOW 0 0 32 VBottom 2
WINDOW 3 32 32 VTop 2
SYMATTR InstName C1
SYMATTR Value 1n
SYMBOL cap 704 64 R90
WINDOW 0 0 32 VBottom 2
WINDOW 3 32 32 VTop 2
SYMATTR InstName C2
SYMATTR Value 1n
SYMBOL Misc\\signal -256 176 R0
WINDOW 123 24 132 Left 2
WINDOW 39 0 0 Left 2
SYMATTR Value2 AC 1
SYMATTR InstName V1
SYMATTR Value ""
SYMBOL Opamps\\opamp2 32 80 R0
SYMATTR InstName U1
SYMATTR Value TL082
SYMBOL Opamps\\opamp2 352 96 R0
SYMATTR InstName U2
SYMATTR Value TL082
SYMBOL Opamps\\opamp2 672 112 R0
SYMATTR InstName U3
SYMATTR Value TL082
SYMBOL voltage -592 16 R0
WINDOW 123 0 0 Left 2
WINDOW 39 0 0 Left 2
SYMATTR InstName V2
SYMATTR Value 12
SYMBOL voltage -592 160 R0
WINDOW 123 0 0 Left 2
WINDOW 39 0 0 Left 2
SYMATTR InstName V3
SYMATTR Value 12
TEXT -320 0 Left 2 !.ac dec 1000 13k 100k
TEXT -344 32 Left 2 !.param tola = 0
TEXT -320 -48 Left 2 !.inc TL082.sub
